data/sourcebus_11000.trafo_75592323_75592323/Lines.dss
New Line.line_75583964_3099716_3094290 Units=km Length=0.032599998474121095 bus1=3094290.1.2.3 bus2=3099716.1.2.3 switch=n enabled=y phases=3 Linecode=3P_Code1
New Line.line_75583965_3099717_3093390 Units=km Length=0.09669999694824219 bus1=3093390.1.2.3 bus2=3099717.1.2.3 switch=n enabled=y phases=3 Linecode=3P_Code1
New Line.line_75585927_3099718_3092885 Units=km Length=0.014199999809265137 bus1=3092885.1.2.3 bus2=3099718.1.2.3 switch=n enabled=y phases=3 Linecode=3P_Code1
New Line.line_75585929_3100460_3099716 Units=km Length=0.021 bus1=3099716.1.2.3 bus2=3100460.1.2.3 switch=n enabled=y phases=3 Linecode=3P_Code0
New Line.line_75585930_3100460_3099717 Units=km Length=0.016299999237060547 bus1=3099717.1.2.3 bus2=3100460.1.2.3 switch=n enabled=y phases=3 Linecode=3P_Code0
New Line.line_75585931_3100460_3099718 Units=km Length=0.01760000038146973 bus1=3099718.1.2.3 bus2=3100460.1.2.3 switch=n enabled=y phases=3 Linecode=3P_Code0
New Line.line_75586118_3092885_3092753 Units=km Length=0.048 bus1=3092753.1.2.3 bus2=3092885.1.2.3 switch=n enabled=y phases=3 Linecode=3P_OH_Code2
New Line.line_75586168_3093444_3092802 Units=km Length=0.028100000381469727 bus1=3092802.3 bus2=3093444.3 switch=n enabled=y phases=1 Linecode=1P_Code10
New Line.line_75586205_3094652_3092837 Units=km Length=0.022600000381469726 bus1=3092837.3 bus2=3094652.3 switch=n enabled=y phases=1 Linecode=1P_Code10
New Line.line_75586206_3092847_3092838 Units=km Length=0.027 bus1=3092838.1.2 bus2=3092847.1.2 switch=n enabled=y phases=2 Linecode=2P_Code8
New Line.line_75586207_3093390_3092839 Units=km Length=0.0135 bus1=3092839.1.2.3 bus2=3093390.1.2.3 switch=n enabled=y phases=3 Linecode=3P_Code5
New Line.line_75586215_3093443_3092847 Units=km Length=0.052900001525878905 bus1=3092847.1.2.3 bus2=3093443.1.2.3 switch=n enabled=y phases=3 Linecode=3P_OH_Code7
New Line.line_75586217_3093445_3092849 Units=km Length=0.053 bus1=3092849.1.2.3 bus2=3093445.1.2.3 switch=n enabled=y phases=3 Linecode=3P_OH_Code2
New Line.line_75586255_3092884_3092883 Units=km Length=0.02 bus1=3092883.1 bus2=3092884.1 switch=n enabled=y phases=1 Linecode=1P_Code3
New Line.line_75586256_3094652_3092884 Units=km Length=0.0510999984741211 bus1=3092884.1.2.3 bus2=3094652.1.2.3 switch=n enabled=y phases=3 Linecode=3P_OH_Code2
New Line.line_75586257_3094274_3092885 Units=km Length=0.047099998474121094 bus1=3092885.1.2.3 bus2=3094274.1.2.3 switch=n enabled=y phases=3 Linecode=3P_OH_Code2
New Line.line_75586258_3093560_3092886 Units=km Length=0.042700000762939457 bus1=3092886.1.2.3 bus2=3093560.1.2.3 switch=n enabled=y phases=3 Linecode=3P_OH_Code2
New Line.line_75586292_3093444_3092914 Units=km Length=0.019299999237060547 bus1=3092914.1.2.3 bus2=3093444.1.2.3 switch=n enabled=y phases=3 Linecode=3P_Code6
New Line.line_75586512_3094290_3093109 Units=km Length=0.05470000076293945 bus1=3093109.1.2.3 bus2=3094290.1.2.3 switch=n enabled=y phases=3 Linecode=3P_OH_Code2
New Line.line_75586866_3093933_3093390 Units=km Length=0.0485 bus1=3093390.1.2.3 bus2=3093933.1.2.3 switch=n enabled=y phases=3 Linecode=3P_OH_Code2
New Line.line_75586867_3093559_3093391 Units=km Length=0.019399999618530273 bus1=3093391.1 bus2=3093559.1 switch=n enabled=y phases=1 Linecode=1P_Code10
New Line.line_75586884_3094009_3093404 Units=km Length=0.05140000152587891 bus1=3093404.1.2.3 bus2=3094009.1.2.3 switch=n enabled=y phases=3 Linecode=3P_OH_Code2
New Line.line_75586943_3094774_3093435 Units=km Length=0.02129999923706055 bus1=3093435.3 bus2=3094774.3 switch=n enabled=y phases=1 Linecode=1P_Code3
New Line.line_75586944_3094775_3093435 Units=km Length=0.012 bus1=3093435.3 bus2=3094775.3 switch=n enabled=y phases=1 Linecode=1P_Code3
New Line.line_75586958_3094789_3093442 Units=km Length=0.014800000190734864 bus1=3093442.3 bus2=3094789.3 switch=n enabled=y phases=1 Linecode=1P_Code3
New Line.line_75586959_3094790_3093443 Units=km Length=0.015600000381469727 bus1=3093443.2 bus2=3094790.2 switch=n enabled=y phases=1 Linecode=1P_Code3
New Line.line_75586960_3094791_3092883 Units=km Length=0.021 bus1=3092883.1 bus2=3094791.1 switch=n enabled=y phases=1 Linecode=1P_Code3
New Line.line_75586961_3094791_3092883 Units=km Length=0.021 bus1=3092883.1 bus2=3094791.1 switch=n enabled=y phases=1 Linecode=1P_Code3
New Line.line_75586962_3094792_3092847 Units=km Length=0.028899999618530275 bus1=3092847.1 bus2=3094792.1 switch=n enabled=y phases=1 Linecode=1P_Code3
New Line.line_75586963_3094793_3092753 Units=km Length=0.022799999237060546 bus1=3092753.1 bus2=3094793.1 switch=n enabled=y phases=1 Linecode=1P_Code3
New Line.line_75586964_3094794_3093391 Units=km Length=0.02160000038146973 bus1=3093391.3 bus2=3094794.3 switch=n enabled=y phases=1 Linecode=1P_Code3
New Line.line_75586965_3094795_3093391 Units=km Length=0.024600000381469728 bus1=3093391.3 bus2=3094795.3 switch=n enabled=y phases=1 Linecode=1P_Code3
New Line.line_75586966_3094796_3093444 Units=km Length=0.014 bus1=3093444.3 bus2=3094796.3 switch=n enabled=y phases=1 Linecode=1P_Code3
New Line.line_75586967_3094797_3093445 Units=km Length=0.007 bus1=3093445.3 bus2=3094797.3 switch=n enabled=y phases=1 Linecode=1P_Code3
New Line.line_75587236_3095051_3093442 Units=km Length=0.018100000381469725 bus1=3093442.2 bus2=3095051.2 switch=n enabled=y phases=1 Linecode=1P_Code3
New Line.line_75587237_3095052_3092884 Units=km Length=0.014699999809265138 bus1=3092884.1 bus2=3095052.1 switch=n enabled=y phases=1 Linecode=1P_Code3
New Line.line_75587238_3095053_3092883 Units=km Length=0.011899999618530274 bus1=3092883.1 bus2=3095053.1 switch=n enabled=y phases=1 Linecode=1P_Code3
New Line.line_75587239_3095054_3092838 Units=km Length=0.021899999618530275 bus1=3092838.1.2 bus2=3095054.1.2 switch=n enabled=y phases=2 Linecode=2P_Code8
New Line.line_75587240_3095055_3093557 Units=km Length=0.018799999237060546 bus1=3093557.1.2 bus2=3095055.1.2 switch=n enabled=y phases=2 Linecode=2P_Code8
New Line.line_75587241_3095056_3093390 Units=km Length=0.016100000381469727 bus1=3093390.3 bus2=3095056.3 switch=n enabled=y phases=1 Linecode=1P_Code3
New Line.line_75587242_3095057_3092885 Units=km Length=0.011300000190734863 bus1=3092885.2 bus2=3095057.2 switch=n enabled=y phases=1 Linecode=1P_Code3
New Line.line_75587243_3095058_3092885 Units=km Length=0.015100000381469726 bus1=3092885.1 bus2=3095058.1 switch=n enabled=y phases=1 Linecode=1P_Code3
New Line.line_75587244_3095059_3093558 Units=km Length=0.018600000381469726 bus1=3093558.1 bus2=3095059.1 switch=n enabled=y phases=1 Linecode=1P_Code3
New Line.line_75587245_3095060_3093559 Units=km Length=0.009899999618530273 bus1=3093559.1 bus2=3095060.1 switch=n enabled=y phases=1 Linecode=1P_Code10
New Line.line_75587246_3095061_3093560 Units=km Length=0.014300000190734864 bus1=3093560.3 bus2=3095061.3 switch=n enabled=y phases=1 Linecode=1P_Code3
New Line.line_75587247_3095061_3093560 Units=km Length=0.014300000190734864 bus1=3093560.3 bus2=3095061.3 switch=n enabled=y phases=1 Linecode=1P_Code3
New Line.line_75587248_3095062_3093444 Units=km Length=0.017399999618530275 bus1=3093444.2 bus2=3095062.2 switch=n enabled=y phases=1 Linecode=1P_Code3
New Line.line_75587249_3095063_3093444 Units=km Length=0.023200000762939453 bus1=3093444.2 bus2=3095063.2 switch=n enabled=y phases=1 Linecode=1P_Code3
New Line.line_75587250_3095064_3093445 Units=km Length=0.010899999618530274 bus1=3093445.2 bus2=3095064.2 switch=n enabled=y phases=1 Linecode=1P_Code3
New Line.line_75588220_3095907_3093933 Units=km Length=0.012300000190734864 bus1=3093933.1 bus2=3095907.1 switch=n enabled=y phases=1 Linecode=1P_Code3
New Line.line_75588294_3093443_3093959 Units=km Length=0.030899999618530273 bus1=3093959.1.2.3 bus2=3093443.1.2.3 switch=n enabled=y phases=3 Linecode=3P_OH_Code2
New Line.line_75588338_3095985_3093391 Units=km Length=0.0195 bus1=3093391.1 bus2=3095985.1 switch=n enabled=y phases=1 Linecode=1P_Code3
New Line.line_75588346_3095989_3093404 Units=km Length=0.009199999809265136 bus1=3093404.1 bus2=3095989.1 switch=n enabled=y phases=1 Linecode=1P_Code3
New Line.line_75588352_3095992_3093443 Units=km Length=0.024399999618530274 bus1=3093443.1 bus2=3095992.1 switch=n enabled=y phases=1 Linecode=1P_Code3
New Line.line_75588384_3094349_3093971 Units=km Length=0.04470000076293945 bus1=3093971.1.2.3 bus2=3094349.1.2.3 switch=n enabled=y phases=3 Linecode=3P_OH_Code2
New Line.line_75588433_3096035_3093442 Units=km Length=0.027 bus1=3093442.2 bus2=3096035.2 switch=n enabled=y phases=1 Linecode=1P_Code3
New Line.line_75588511_3096092_3093971 Units=km Length=0.014899999618530274 bus1=3093971.1 bus2=3096092.1 switch=n enabled=y phases=1 Linecode=1P_Code3
New Line.line_75588522_3096097_3094009 Units=km Length=0.03770000076293945 bus1=3094009.1 bus2=3096097.1 switch=n enabled=y phases=1 Linecode=1P_Code3
New Line.line_75588547_3096114_3094017 Units=km Length=0.0195 bus1=3094017.1 bus2=3096114.1 switch=n enabled=y phases=1 Linecode=1P_Code3
New Line.line_75588598_3096148_3092886 Units=km Length=0.011100000381469726 bus1=3092886.3 bus2=3096148.3 switch=n enabled=y phases=1 Linecode=1P_Code3
New Line.line_75588599_3096149_3092886 Units=km Length=0.020700000762939454 bus1=3092886.1 bus2=3096149.1 switch=n enabled=y phases=1 Linecode=1P_Code3
New Line.line_75588779_3093971_3093435 Units=km Length=0.016899999618530274 bus1=3093435.3 bus2=3093971.3 switch=n enabled=y phases=1 Linecode=1P_Code3
New Line.line_75588797_3096222_3094096 Units=km Length=0.008699999809265137 bus1=3094096.3 bus2=3096222.3 switch=n enabled=y phases=1 Linecode=1P_Code3
New Line.line_75588798_3096223_3093933 Units=km Length=0.021100000381469728 bus1=3093933.2 bus2=3096223.2 switch=n enabled=y phases=1 Linecode=1P_Code3
New Line.line_75589113_3096428_3093391 Units=km Length=0.021500000000000002 bus1=3093391.2 bus2=3096428.2 switch=n enabled=y phases=1 Linecode=1P_Code3
New Line.line_75589114_3096429_3093391 Units=km Length=0.022299999237060546 bus1=3093391.2 bus2=3096429.2 switch=n enabled=y phases=1 Linecode=1P_Code3
New Line.line_75589160_3093557_3094096 Units=km Length=0.019 bus1=3094096.1.2 bus2=3093557.1.2 switch=n enabled=y phases=2 Linecode=2P_Code8
New Line.line_75589189_3096490_3094186 Units=km Length=0.010399999618530274 bus1=3094186.1.2.3 bus2=3096490.1.2.3 switch=n enabled=y phases=3 Linecode=3P_Code5
New Line.line_75589190_3096491_3094009 Units=km Length=0.024100000381469727 bus1=3094009.3 bus2=3096491.3 switch=n enabled=y phases=1 Linecode=1P_Code3
New Line.line_75589291_3096568_3092883 Units=km Length=0.011800000190734863 bus1=3092883.1 bus2=3096568.1 switch=n enabled=y phases=1 Linecode=1P_Code3
New Line.line_75589440_3096660_3094228 Units=km Length=0.0125 bus1=3094228.1.2 bus2=3096660.1.2 switch=n enabled=y phases=2 Linecode=2P_Code8
New Line.line_75589461_3096670_3092837 Units=km Length=0.015199999809265136 bus1=3092837.3 bus2=3096670.3 switch=n enabled=y phases=1 Linecode=1P_Code3
New Line.line_75589464_3092884_3093443 Units=km Length=0.045 bus1=3093443.1.2.3 bus2=3092884.1.2.3 switch=n enabled=y phases=3 Linecode=3P_OH_Code2
New Line.line_75589493_3096696_3092884 Units=km Length=0.023600000381469727 bus1=3092884.1 bus2=3096696.1 switch=n enabled=y phases=1 Linecode=1P_Code3
New Line.line_75589494_3096697_3092753 Units=km Length=0.015100000381469726 bus1=3092753.1 bus2=3096697.1 switch=n enabled=y phases=1 Linecode=1P_Code3
New Line.line_75589546_3096727_3093435 Units=km Length=0.019 bus1=3093435.3 bus2=3096727.3 switch=n enabled=y phases=1 Linecode=1P_Code3
New Line.line_75589587_3096754_3092849 Units=km Length=0.014600000381469727 bus1=3092849.3 bus2=3096754.3 switch=n enabled=y phases=1 Linecode=1P_Code3
New Line.line_75589593_3094332_3092885 Units=km Length=0.027 bus1=3092885.2 bus2=3094332.2 switch=n enabled=y phases=1 Linecode=1P_Code3
New Line.line_75589683_3096808_3094274 Units=km Length=0.019399999618530273 bus1=3094274.2 bus2=3096808.2 switch=n enabled=y phases=1 Linecode=1P_Code3
New Line.line_75589732_3094274_3092886 Units=km Length=0.016100000381469727 bus1=3092886.1.2.3 bus2=3094274.1.2.3 switch=n enabled=y phases=3 Linecode=3P_OH_Code2
New Line.line_75589737_3093443_3093442 Units=km Length=0.04370000076293946 bus1=3093442.1.2.3 bus2=3093443.1.2.3 switch=n enabled=y phases=3 Linecode=3P_OH_Code2
New Line.line_75589762_3096861_3094290 Units=km Length=0.019700000762939453 bus1=3094290.1 bus2=3096861.1 switch=n enabled=y phases=1 Linecode=1P_Code3
New Line.line_75589983_3097001_3094332 Units=km Length=0.0145 bus1=3094332.2 bus2=3097001.2 switch=n enabled=y phases=1 Linecode=1P_Code3
New Line.line_75590015_3093109_3093445 Units=km Length=0.0425 bus1=3093445.1.2.3 bus2=3093109.1.2.3 switch=n enabled=y phases=3 Linecode=3P_OH_Code2
New Line.line_75590051_3097041_3093435 Units=km Length=0.011699999809265137 bus1=3093435.3 bus2=3097041.3 switch=n enabled=y phases=1 Linecode=1P_Code3
New Line.line_75590089_3094228_3093971 Units=km Length=0.0185 bus1=3093971.1.2 bus2=3094228.1.2 switch=n enabled=y phases=2 Linecode=2P_Code8
New Line.line_75590102_3097071_3094349 Units=km Length=0.014 bus1=3094349.2 bus2=3097071.2 switch=n enabled=y phases=1 Linecode=1P_Code3
New Line.line_75590153_3093109_3094009 Units=km Length=0.058 bus1=3094009.1.2.3 bus2=3093109.1.2.3 switch=n enabled=y phases=3 Linecode=3P_OH_Code2
New Line.line_75590188_3092753_3093391 Units=km Length=0.045 bus1=3093391.1.2.3 bus2=3092753.1.2.3 switch=n enabled=y phases=3 Linecode=3P_OH_Code2
New Line.line_75590195_3093445_3094186 Units=km Length=0.017 bus1=3094186.1.2.3 bus2=3093445.1.2.3 switch=n enabled=y phases=3 Linecode=3P_Code5
New Line.line_75590210_3097136_3093444 Units=km Length=0.020299999237060547 bus1=3093444.2 bus2=3097136.2 switch=n enabled=y phases=1 Linecode=1P_Code3
New Line.line_75590342_3097213_3092837 Units=km Length=0.024799999237060548 bus1=3092837.3 bus2=3097213.3 switch=n enabled=y phases=1 Linecode=1P_Code3
New Line.line_75590352_3093442_3094349 Units=km Length=0.046 bus1=3094349.1.2.3 bus2=3093442.1.2.3 switch=n enabled=y phases=3 Linecode=3P_OH_Code2
New Line.line_75590415_3097256_3093390 Units=km Length=0.017200000762939455 bus1=3093390.2 bus2=3097256.2 switch=n enabled=y phases=1 Linecode=1P_Code3
New Line.line_75590506_3092847_3094096 Units=km Length=0.053 bus1=3094096.1.2.3 bus2=3092847.1.2.3 switch=n enabled=y phases=3 Linecode=3P_OH_Code9
New Line.line_75590555_3097350_3093391 Units=km Length=0.02560000038146973 bus1=3093391.1 bus2=3097350.1 switch=n enabled=y phases=1 Linecode=1P_Code3
New Line.line_75590641_3097403_3094290 Units=km Length=0.02 bus1=3094290.2 bus2=3097403.2 switch=n enabled=y phases=1 Linecode=1P_Code3
New Line.line_75590747_3093444_3093560 Units=km Length=0.0435999984741211 bus1=3093560.1.2.3 bus2=3093444.1.2.3 switch=n enabled=y phases=3 Linecode=3P_OH_Code2
New Line.line_75590804_3097498_3093560 Units=km Length=0.016799999237060548 bus1=3093560.3 bus2=3097498.3 switch=n enabled=y phases=1 Linecode=1P_Code3
New Line.line_75590811_3093558_3092753 Units=km Length=0.009600000381469726 bus1=3092753.1 bus2=3093558.1 switch=n enabled=y phases=1 Linecode=1P_Code3
New Line.line_75590814_3097505_3094009 Units=km Length=0.020600000381469728 bus1=3094009.1.2.3 bus2=3097505.1.2.3 switch=n enabled=y phases=3 Linecode=3P_Code6
New Line.line_75590859_3097537_3093560 Units=km Length=0.018899999618530273 bus1=3093560.1 bus2=3097537.1 switch=n enabled=y phases=1 Linecode=1P_Code3
New Line.line_75590915_3093959_3093933 Units=km Length=0.046400001525878906 bus1=3093933.1.2.3 bus2=3093959.1.2.3 switch=n enabled=y phases=3 Linecode=3P_OH_Code2
New Line.line_75591029_3093442_3094017 Units=km Length=0.026899999618530273 bus1=3094017.1 bus2=3093442.1 switch=n enabled=y phases=1 Linecode=1P_Code3
New Line.line_75591033_3097648_3092753 Units=km Length=0.02179999923706055 bus1=3092753.2 bus2=3097648.2 switch=n enabled=y phases=1 Linecode=1P_Code3
New Line.line_75591063_3097669_3093560 Units=km Length=0.025100000381469728 bus1=3093560.3 bus2=3097669.3 switch=n enabled=y phases=1 Linecode=1P_Code3
New Line.line_75591090_3097688_3093404 Units=km Length=0.019600000381469727 bus1=3093404.2 bus2=3097688.2 switch=n enabled=y phases=1 Linecode=1P_Code3
New Line.line_75591093_3097691_3094096 Units=km Length=0.035500000000000004 bus1=3094096.3 bus2=3097691.3 switch=n enabled=y phases=1 Linecode=1P_Code3
New Line.line_75591123_3097707_3092847 Units=km Length=0.017299999237060548 bus1=3092847.3 bus2=3097707.3 switch=n enabled=y phases=1 Linecode=1P_Code3
New Line.line_75591543_3097944_3092885 Units=km Length=0.012399999618530274 bus1=3092885.1.2.3 bus2=3097944.1.2.3 switch=n enabled=y phases=3 Linecode=3P_Code6
New Line.line_75591913_3098209_3093445 Units=km Length=0.018600000381469726 bus1=3093445.3 bus2=3098209.3 switch=n enabled=y phases=1 Linecode=1P_Code3
New Line.line_75607868_3100575_3094791 Units=km Length=0.005317524071295396 bus1=3094791.1 bus2=3100575.1 switch=n enabled=y phases=1 Linecode=1P_Code4
New Line.line_75607869_3100576_3096222 Units=km Length=0.009313186404408877 bus1=3096222.3 bus2=3100576.3 switch=n enabled=y phases=1 Linecode=1P_Code4
New Line.line_75607870_3100577_3095054 Units=km Length=0.0032409026520808784 bus1=3095054.2 bus2=3100577.2 switch=n enabled=y phases=1 Linecode=1P_Code4
New Line.line_75607871_3100578_3095054 Units=km Length=0.0032409026520808784 bus1=3095054.2 bus2=3100578.2 switch=n enabled=y phases=1 Linecode=1P_Code4
New Line.line_75607872_3100579_3092838 Units=km Length=0.02871998509722449 bus1=3092838.2 bus2=3100579.2 switch=n enabled=y phases=1 Linecode=1P_Code4
New Line.line_75607873_3100580_3093933 Units=km Length=0.02553618023940329 bus1=3093933.2 bus2=3100580.2 switch=n enabled=y phases=1 Linecode=1P_Code4
New Line.line_75607874_3100581_3095061 Units=km Length=0.00851619521812094 bus1=3095061.3 bus2=3100581.3 switch=n enabled=y phases=1 Linecode=1P_Code4
New Line.line_75607875_3100582_3095061 Units=km Length=0.022490949668683296 bus1=3095061.3 bus2=3100582.3 switch=n enabled=y phases=1 Linecode=1P_Code4
New Line.line_75607876_3100583_3096148 Units=km Length=0.016943624228574896 bus1=3096148.3 bus2=3100583.3 switch=n enabled=y phases=1 Linecode=1P_Code4
New Line.line_75607877_3100584_3093560 Units=km Length=0.024256882837782993 bus1=3093560.3 bus2=3100584.3 switch=n enabled=y phases=1 Linecode=1P_Code4
New Line.line_75607878_3100585_3094796 Units=km Length=0.007624888802513197 bus1=3094796.3 bus2=3100585.3 switch=n enabled=y phases=1 Linecode=1P_Code4
New Line.line_75607879_3100586_3094796 Units=km Length=0.007624888802513197 bus1=3094796.3 bus2=3100586.3 switch=n enabled=y phases=1 Linecode=1P_Code4
New Line.line_75607880_3100587_3095062 Units=km Length=0.014275300417505259 bus1=3095062.2 bus2=3100587.2 switch=n enabled=y phases=1 Linecode=1P_Code4
New Line.line_75607881_3100588_3095062 Units=km Length=0.008585029412135613 bus1=3095062.2 bus2=3100588.2 switch=n enabled=y phases=1 Linecode=1P_Code4
New Line.line_75607882_3100589_3092802 Units=km Length=0.023003364667260624 bus1=3092802.3 bus2=3100589.3 switch=n enabled=y phases=1 Linecode=1P_Code4
New Line.line_75607883_3100590_3097498 Units=km Length=0.017723094114567333 bus1=3097498.3 bus2=3100590.3 switch=n enabled=y phases=1 Linecode=1P_Code4
New Line.line_75607884_3100591_3097537 Units=km Length=0.006615800026630928 bus1=3097537.1 bus2=3100591.1 switch=n enabled=y phases=1 Linecode=1P_Code4
New Line.line_75607885_3100592_3096861 Units=km Length=0.012889783444220957 bus1=3096861.1 bus2=3100592.1 switch=n enabled=y phases=1 Linecode=1P_Code4
New Line.line_75607912_3100619_3092849 Units=km Length=0.027775479581876813 bus1=3092849.3 bus2=3100619.3 switch=n enabled=y phases=1 Linecode=1P_Code4
New Line.line_75607913_3100620_3095064 Units=km Length=0.009133620927663027 bus1=3095064.2 bus2=3100620.2 switch=n enabled=y phases=1 Linecode=1P_Code4
New Line.line_75607914_3100621_3094797 Units=km Length=0.01837718741389814 bus1=3094797.3 bus2=3100621.3 switch=n enabled=y phases=1 Linecode=1P_Code4
New Line.line_75607915_3100622_3093109 Units=km Length=0.013138899164552569 bus1=3093109.3 bus2=3100622.3 switch=n enabled=y phases=1 Linecode=1P_Code4
New Line.line_75607916_3100623_3094793 Units=km Length=0.011711034849398453 bus1=3094793.1 bus2=3100623.1 switch=n enabled=y phases=1 Linecode=1P_Code4
New Line.line_75607917_3100624_3094793 Units=km Length=0.008580621903510728 bus1=3094793.1 bus2=3100624.1 switch=n enabled=y phases=1 Linecode=1P_Code4
New Line.line_75607918_3100625_3094793 Units=km Length=0.008580621903510728 bus1=3094793.1 bus2=3100625.1 switch=n enabled=y phases=1 Linecode=1P_Code4
New Line.line_75607919_3100626_3097648 Units=km Length=0.011736311910238346 bus1=3097648.2 bus2=3100626.2 switch=n enabled=y phases=1 Linecode=1P_Code4
New Line.line_75607920_3100627_3097648 Units=km Length=0.011736311910238346 bus1=3097648.2 bus2=3100627.2 switch=n enabled=y phases=1 Linecode=1P_Code4
New Line.line_75607921_3100628_3095059 Units=km Length=0.00715468882938751 bus1=3095059.1 bus2=3100628.1 switch=n enabled=y phases=1 Linecode=1P_Code4
New Line.line_75607922_3100629_3095059 Units=km Length=0.00715468882938751 bus1=3095059.1 bus2=3100629.1 switch=n enabled=y phases=1 Linecode=1P_Code4
New Line.line_75607923_3100630_3095059 Units=km Length=0.00715468882938751 bus1=3095059.1 bus2=3100630.1 switch=n enabled=y phases=1 Linecode=1P_Code4
New Line.line_75607924_3100631_3097001 Units=km Length=0.003342886813793336 bus1=3097001.2 bus2=3100631.2 switch=n enabled=y phases=1 Linecode=1P_Code4
New Line.line_75607925_3100632_3097001 Units=km Length=0.003342886813793336 bus1=3097001.2 bus2=3100632.2 switch=n enabled=y phases=1 Linecode=1P_Code4
New Line.line_75607926_3100633_3095056 Units=km Length=0.009859098399629422 bus1=3095056.3 bus2=3100633.3 switch=n enabled=y phases=1 Linecode=1P_Code4
New Line.line_75607927_3100634_3095056 Units=km Length=0.008373884477613376 bus1=3095056.3 bus2=3100634.3 switch=n enabled=y phases=1 Linecode=1P_Code4
New Line.line_75607928_3100635_3095056 Units=km Length=0.009859098399629422 bus1=3095056.3 bus2=3100635.3 switch=n enabled=y phases=1 Linecode=1P_Code4
New Line.line_75607929_3100636_3096223 Units=km Length=0.00929545448095745 bus1=3096223.2 bus2=3100636.2 switch=n enabled=y phases=1 Linecode=1P_Code4
New Line.line_75607930_3100637_3096727 Units=km Length=0.016079613062449667 bus1=3096727.3 bus2=3100637.3 switch=n enabled=y phases=1 Linecode=1P_Code4
New Line.line_75607931_3100638_3094775 Units=km Length=0.007816497553443059 bus1=3094775.3 bus2=3100638.3 switch=n enabled=y phases=1 Linecode=1P_Code4
New Line.line_75607940_3100647_3094789 Units=km Length=0.00522471941851263 bus1=3094789.3 bus2=3100647.3 switch=n enabled=y phases=1 Linecode=1P_Code4
New Line.line_75607941_3100648_3095992 Units=km Length=0.008350249397243803 bus1=3095992.1 bus2=3100648.1 switch=n enabled=y phases=1 Linecode=1P_Code4
New Line.line_75607942_3100649_3094790 Units=km Length=0.009839621588552679 bus1=3094790.2 bus2=3100649.2 switch=n enabled=y phases=1 Linecode=1P_Code4
New Line.line_75607977_3100684_3094789 Units=km Length=0.047096843992306965 bus1=3094789.3 bus2=3100684.3 switch=n enabled=y phases=1 Linecode=1P_Code4
New Line.line_75608262_3100969_3094789 Units=km Length=0.00522471941851263 bus1=3094789.3 bus2=3100969.3 switch=n enabled=y phases=1 Linecode=1P_Code4
New Line.line_75608263_3100970_3095055 Units=km Length=0.010459998864405315 bus1=3095055.1 bus2=3100970.1 switch=n enabled=y phases=1 Linecode=1P_Code4
New Line.line_75608282_3100989_3095055 Units=km Length=0.010459998864405315 bus1=3095055.1 bus2=3100989.1 switch=n enabled=y phases=1 Linecode=1P_Code4
New Line.line_75608311_3101018_3096428 Units=km Length=0.02448053400131335 bus1=3096428.2 bus2=3101018.2 switch=n enabled=y phases=1 Linecode=1P_Code4
New Line.line_75608314_3101021_3096861 Units=km Length=0.012753725622343809 bus1=3096861.1 bus2=3101021.1 switch=n enabled=y phases=1 Linecode=1P_Code4
New Line.line_75608369_3101076_3096754 Units=km Length=0.035360231800847554 bus1=3096754.3 bus2=3101076.3 switch=n enabled=y phases=1 Linecode=1P_Code4
New Line.line_75608371_3101078_3092849 Units=km Length=0.03585059850229973 bus1=3092849.1 bus2=3101078.1 switch=n enabled=y phases=1 Linecode=1P_Code4
New Line.line_75608380_3101087_3094775 Units=km Length=0.007816497553443059 bus1=3094775.3 bus2=3101087.3 switch=n enabled=y phases=1 Linecode=1P_Code4
New Line.line_75608419_3101126_3092849 Units=km Length=0.014049609994284316 bus1=3092849.3 bus2=3101126.3 switch=n enabled=y phases=1 Linecode=1P_Code4
New Line.line_75608466_3101173_3092802 Units=km Length=0.00749569376351808 bus1=3092802.3 bus2=3101173.3 switch=n enabled=y phases=1 Linecode=1P_Code4
New Line.line_75608473_3101180_3097688 Units=km Length=0.022304404526173917 bus1=3097688.2 bus2=3101180.2 switch=n enabled=y phases=1 Linecode=1P_Code4
New Line.line_75608511_3101218_3092847 Units=km Length=0.009707864080261941 bus1=3092847.3 bus2=3101218.3 switch=n enabled=y phases=1 Linecode=1P_Code4
New Line.line_75608522_3101229_3097505 Units=km Length=0.024082314548188148 bus1=3097505.1 bus2=3101229.1 switch=n enabled=y phases=1 Linecode=1P_Code4
New Line.line_75608549_3101256_3097505 Units=km Length=0.01179267976342832 bus1=3097505.2 bus2=3101256.2 switch=n enabled=y phases=1 Linecode=1P_Code4
